/*--------------------------------*- C++ -*----------------------------------*\
| =========                 |                                                |
| \\      /  F ield         | cfMesh: A library for mesh generation          | 
|  \\    /   O peration     |                                                |
|   \\  /    A nd           | Author: Franjo Juretic                         | 
|    \\/     M anipulation  | E-mail: franjo.juretic@c-fields.com            |
\*---------------------------------------------------------------------------*/

FoamFile
{
    version   2.0;
    format    ascii;
    class     dictionary;
    location  "system";
    object    meshDict;
}

// * * * * * * * * * * * * * * * * * * * * * * * * * * * * * * * * * * * * * //

maxCellSize	0.045;

surfaceFile	"cylinder_zero.fms";

boundaryLayers
{
    nLayers	1;

    patchBoundaryLayers
    {

        cylinder
        {
             nLayers	10;
             thicknessRatio	1.5;
        }
    }

    optimiseLayer 2;

    optimisationParameters
    {
        nSmoothNormals 50;
        relThicknessTol 0.05;
        featureSizeFactor 0.7;
        reCalculateNormals 1;
        maxNumIterations 10;
    }
}

localRefinement
{

    cylinder
    {
        cellSize	0.005;
        refinementThickness 0.01;
    }

}

// ************************************************************************* //
